/*--------------------------------*- C++ -*----------------------------------*\
  =========                 |
  \\      /  F ield         | OpenFOAM: The Open Source CFD Toolbox
   \\    /   O peration     | Website:  https://openfoam.org
    \\  /    A nd           | Version:  dev
     \\/     M anipulation  |
\*---------------------------------------------------------------------------*/
FoamFile
{
    format      ascii;
    class       volScalarField;
    location    "0";
    object      epsilon;
}
// * * * * * * * * * * * * * * * * * * * * * * * * * * * * * * * * * * * * * //

dimensions      [0 2 -3 0 0 0 0];

internalField   uniform 0.1;

boundaryField
{
    frontHeated
    {
    	type wedge;
    
    }
    backHeated
    {
    	type wedge;
    
    }
     frontCooled
    {
    	type wedge;
    
    }
     backCooled
    {
    	type wedge;
    
    }
    
    heatedWall
    {
    	type            epsilonWallFunction;
        value           uniform 0.1;
    
    }
    
    cooledWall
    {
    	type            epsilonWallFunction;
        value           uniform 0.1;
    }
    
    backWall
    {
    	type            epsilonWallFunction;
        value           uniform 0.1;
    }

    atmosphere
    {
        type            inletOutlet;
        inletValue      uniform 0.1;
        value           uniform 0.1;
    }
    
    axis
    {
	type empty;
    }

    defaultFaces
    {
        type            empty;
    }

}


// ************************************************************************* //
